8

C      0.000239    0.731375   -0.001986
C     -1.098566   -0.106954   -0.048413
O     -0.663602   -1.342027   -0.025757
N      0.636611   -1.360792    0.031938
C      1.125910   -0.092628    0.050169
H     -0.024063    1.798740   -0.005971
H     -2.146540    0.157849   -0.095596
H      2.170011    0.214436    0.095616
