  8
 
 C         -0.0228412238        0.7776920865       -0.0000113928
 C         -1.0844146261       -0.0768621254        0.0000145659
 O         -0.6467479470       -1.3370529798       -0.0000239588
 N          0.7023156962       -1.3386689621       -0.0000127517
 C          1.0899084849       -0.0950129600        0.0000159908
 H         -0.0259463400        1.8465926479       -0.0000230802
 H         -2.1451252414        0.0752176393        0.0000221648
 H          2.1328521972        0.1480956535        0.0000174620
