 xtb: 6.6.1 (8d0f1dd)
          12102407233D

  8  8  0     0  0            999 V2000
   -0.0228    0.7777   -0.0000 C   0  0  0  0  0  0  0  0  0  0  0  0
   -1.0844   -0.0769    0.0000 C   0  0  0  0  0  0  0  0  0  0  0  0
   -0.6467   -1.3371   -0.0000 O   0  0  0  0  0  0  0  0  0  0  0  0
    0.7023   -1.3387   -0.0000 N   0  0  0  0  0  0  0  0  0  0  0  0
    1.0899   -0.0950    0.0000 C   0  0  0  0  0  0  0  0  0  0  0  0
   -0.0259    1.8466   -0.0000 H   0  0  0  0  0  0  0  0  0  0  0  0
   -2.1451    0.0752    0.0000 H   0  0  0  0  0  0  0  0  0  0  0  0
    2.1329    0.1481    0.0000 H   0  0  0  0  0  0  0  0  0  0  0  0
  1  2  2  0  0  0  0
  2  3  1  0  0  0  0
  3  4  1  0  0  0  0
  1  5  4  0  0  0  0
  4  5  2  0  0  0  0
  1  6  1  0  0  0  0
  2  7  1  0  0  0  0
  5  8  1  0  0  0  0
M  END
